*HEADING
Single tetra smoke test for CalculiX
*NODE
1, 0.0, 0.0, 0.0
2, 1.0, 0.0, 0.0
3, 0.0, 1.0, 0.0
4, 0.0, 0.0, 1.0
*ELEMENT, TYPE=C3D4, ELSET=EALL
1, 1, 2, 3, 4
*NSET, NSET=NALL
1, 2, 3, 4
*MATERIAL, NAME=Steel
*ELASTIC
210000.0, 0.3
*SOLID SECTION, ELSET=EALL, MATERIAL=Steel
*BOUNDARY
1, 1, 3, 0.0
2, 2, 3, 0.0
3, 3, 3, 0.0
*STEP
*STATIC
*CLOAD
4, 3, -100.0
*NODE FILE
U
*EL FILE
S
*NODE PRINT, NSET=NALL
U
*EL PRINT, ELSET=EALL
S
*END STEP
