*HEADING
MyCAE CalculiX input deck: test1_Simulation_Case
** Nodes: 111, tetra4 elements: 264, surface triangles: 212
*NODE
1, 0, 0, 0
2, 0, 0, 20
3, 0, 20, 0
4, 0, 20, 20
5, 100, 0, 0
6, 100, 0, 20
7, 100, 20, 0
8, 100, 20, 20
9, 0, 0, 10.00000000000001
10, 0, 10.00000000000001, 0
11, 0, 20, 10.00000000000001
12, 0, 10.00000000000001, 20
13, 100, 0, 10.00000000000001
14, 100, 10.00000000000001, 0
15, 100, 20, 10.00000000000001
16, 100, 10.00000000000001, 20
17, 10, 0, 0
18, 20.00000000000001, 0, 0
19, 29.99999999999999, 0, 0
20, 39.99999999999996, 0, 0
** ... 91 like lines cut
*NSET, NSET=NALL
1, 2, 3, 4, 5, 6, 7, 8, 9, 10, 11, 12, 13, 14, 15, 16
17, 18, 19, 20, 21, 22, 23, 24, 25, 26, 27, 28, 29, 30, 31, 32
33, 34, 35, 36, 37, 38, 39, 40, 41, 42, 43, 44, 45, 46, 47, 48
49, 50, 51, 52, 53, 54, 55, 56, 57, 58, 59, 60, 61, 62, 63, 64
65, 66, 67, 68, 69, 70, 71, 72, 73, 74, 75, 76, 77, 78, 79, 80
81, 82, 83, 84, 85, 86, 87, 88, 89, 90, 91, 92, 93, 94, 95, 96
97, 98, 99, 100, 101, 102, 103, 104, 105, 106, 107, 108, 109, 110, 111
*ELEMENT, TYPE=C3D4, ELSET=EALL
277, 90, 85, 61, 73
278, 73, 61, 67, 85
279, 73, 67, 92, 85
280, 61, 73, 67, 97
281, 73, 67, 97, 103
282, 67, 73, 92, 103
283, 92, 103, 73, 78
284, 68, 80, 87, 111
285, 68, 99, 80, 111
286, 77, 102, 90, 111
287, 90, 102, 65, 111
288, 80, 99, 68, 109
289, 68, 87, 80, 109
290, 92, 67, 103, 110
291, 103, 78, 92, 110
292, 79, 90, 86, 111
293, 77, 90, 79, 111
294, 66, 86, 90, 111
295, 74, 91, 87, 111
296, 80, 74, 87, 111
** ... 244 like lines cut
*MATERIAL, NAME=Steel
*ELASTIC
210000000000, 0.3
*DENSITY
7800
*SOLID SECTION, ELSET=EALL, MATERIAL=Steel
*NSET, NSET=N_fixedend
3, 4, 7, 8, 11, 15, 35, 36, 37, 38, 39, 40, 41, 42, 43, 44
45, 46, 47, 48, 49, 50, 51, 52, 73, 74, 75, 76, 77, 78, 79, 80
81, 82, 83, 84
*NSET, NSET=N_loadendbc
1, 2, 5, 6, 9, 13, 17, 18, 19, 20, 21, 22, 23, 24, 25, 26
27, 28, 29, 30, 31, 32, 33, 34, 61, 62, 63, 64, 65, 66, 67, 68
69, 70, 71, 72
*ELSET, ELSET=E_fixedend
329, 332, 333, 336, 338, 344, 345, 350, 352, 361, 363, 367, 392, 394, 402, 406
407, 409, 417, 419, 420, 423, 425, 428, 434, 438, 440, 443, 456, 464, 468, 480
483, 498, 499, 506, 507, 508, 509, 512, 515, 516, 520, 527, 529, 531
*ELSET, ELSET=E_loadendbc
331, 335, 339, 343, 348, 349, 353, 355, 360, 366, 368, 385, 388, 395, 401, 405
424, 426, 433, 436, 437, 439, 444, 446, 447, 449, 450, 451, 452, 455, 462, 475
477, 487, 490, 492, 502, 503, 513, 517, 519, 523, 524, 528, 530, 538
*SURFACE, NAME=S_fixedend, TYPE=ELEMENT
520, S1
529, S4
506, S2
515, S1
509, S2
527, S1
516, S1
531, S4
464, S3
507, S3
512, S2
407, S1
409, S3
361, S4
456, S3
338, S4
420, S3
352, S4
425, S1
329, S3
** ... 26 like lines cut
*SURFACE, NAME=S_loadendbc, TYPE=ELEMENT
503, S1
517, S1
523, S1
530, S4
502, S3
519, S3
524, S3
528, S1
475, S1
477, S4
395, S2
388, S1
462, S3
343, S4
452, S1
538, S2
426, S3
353, S3
436, S3
331, S2
** ... 26 like lines cut
*BOUNDARY
N_fixedend, 1, 3, 0.0
*STEP
*STATIC
*DLOAD
S_loadendbc, P, 100000
*NODE PRINT, NSET=NALL
U
*EL PRINT, ELSET=EALL
S
*END STEP
